--
-- -----------------------------------------------------------------------------
-- Office RUNSPEC (RUN) Data Section Version 2016.1 Jul 11 2016
-- -----------------------------------------------------------------------------
--
-- File: EGG_RUN.inc
-- Created on: 2022-Jun-26 at: 15:20:04
--
-- *****************************************************************************
-- *                                  WARNING                                  *
-- *                THIS FILE HAS BEEN AUTOMATICALLY GENERATED.                *
-- *          ANY ATTEMPT TO EDIT MANUALLY MAY RESULT IN INVALID DATA.         *
-- *****************************************************************************
--
-- OFFICE-RUNSPEC-HEADER-DATA
RUNSPEC
TITLE
 VEM
START
 15 'JUN' 2011 /
METRIC
FMTIN
FMTOUT
GAS
OIL
WATER
DISGAS
SAVE
 'UNFORMATTED' /
NSTACK
 -75 /
MONITOR
RSSPEC
NOINSPEC
MSGFILE
 1 /
AQUDIMS
 0 0 1 0 0 0 0 0 /
DIMENS
 60 60 7 /
EQLDIMS
 1 100 100 1 20 /
REGDIMS
 1 1 0 10 /
TABDIMS
 1 1 20 20 1 20 20 1 /
WELLDIMS
 13 100 4 13 /
